** ==========================================================================
** calculix_cantilever_c3d8.inp — CalculiX/Abaqus deck, Euler-Bernoulli check.
** A slender cantilever L=0.20, b=h=0.010 (SI: m), 10 C3D8 hexes along x, 1x1
** across the section. Root face x=0 fully built in (ENCASTRE). Tip face x=L
** loaded with a transverse force F=1000 N in -y (250 N / tip node).
**   Euler-Bernoulli tip deflection  delta = P L^3 / (3 E I),  I = b h^3 / 12
**     I = 0.010*0.010^3/12 = 8.3333e-10 ,  delta = 1000*0.2^3/(3*210e9*I)
**         = 1.5238e-5 m  (Timoshenko, shear-corrected, slightly larger).
** L/h = 20 (slender) so the incompatible-modes hex matches E-B to < 1 %.
** ==========================================================================
*HEADING
 Cantilever beam, 10 x C3D8, Euler-Bernoulli tip deflection
*NODE, NSET=NALL
1,  0.00, 0.000, 0.000
2,  0.00, 0.010, 0.000
3,  0.00, 0.010, 0.010
4,  0.00, 0.000, 0.010
5,  0.02, 0.000, 0.000
6,  0.02, 0.010, 0.000
7,  0.02, 0.010, 0.010
8,  0.02, 0.000, 0.010
9,  0.04, 0.000, 0.000
10, 0.04, 0.010, 0.000
11, 0.04, 0.010, 0.010
12, 0.04, 0.000, 0.010
13, 0.06, 0.000, 0.000
14, 0.06, 0.010, 0.000
15, 0.06, 0.010, 0.010
16, 0.06, 0.000, 0.010
17, 0.08, 0.000, 0.000
18, 0.08, 0.010, 0.000
19, 0.08, 0.010, 0.010
20, 0.08, 0.000, 0.010
** ... 24 like lines cut
*ELEMENT, TYPE=C3D8, ELSET=EALL
1,  1, 5, 6, 2, 4, 8, 7, 3
2,  5, 9, 10, 6, 8, 12, 11, 7
3,  9, 13, 14, 10, 12, 16, 15, 11
4,  13, 17, 18, 14, 16, 20, 19, 15
5,  17, 21, 22, 18, 20, 24, 23, 19
6,  21, 25, 26, 22, 24, 28, 27, 23
7,  25, 29, 30, 26, 28, 32, 31, 27
8,  29, 33, 34, 30, 32, 36, 35, 31
9,  33, 37, 38, 34, 36, 40, 39, 35
10, 37, 41, 42, 38, 40, 44, 43, 39
*NSET, NSET=ROOT
1, 2, 3, 4
*NSET, NSET=TIP
41, 42, 43, 44
*MATERIAL, NAME=STEEL
*ELASTIC
210.0e9, 0.3
*DENSITY
7850.0
*SOLID SECTION, ELSET=EALL, MATERIAL=STEEL
*STEP
*STATIC
*BOUNDARY
ROOT, ENCASTRE
*CLOAD
41, 2, -250.0
42, 2, -250.0
43, 2, -250.0
44, 2, -250.0
*NODE PRINT, NSET=NALL
U
*END STEP
